$pyNastran: version=msc
$pyNastran: punch=False
$pyNastran: encoding=utf-8
$pyNastran: nnodes=75
$pyNastran: nelements=24
$EXECUTIVE CONTROL DECK
SOL 145
CEND
$CASE CONTROL DECK
SUBCASE 1
    SET 99 = 1 THRU 10
    AESYMXY = ASYMMETRIC
    AESYMXZ = SYMMETRIC
    ANALYSIS = FLUTTER
    DISPLACEMENT(SORT1,REAL) = ALL
    FMETHOD = 1
    METHOD = 10
    SPC = 50
    SPCFORCES(SORT1, REAL) = ALL
    SUBTITLE = Default
BEGIN BULK
$PARAMS
PARAM      Aunit      1.
PARAM     OMODES     ALL
PARAM       POST      -1
PARAM   PRTMAXIM     YES
PARAM      SNORM     20.
PARAM     WTMASS      1.
$POINTS
POINT        201              0.      0.      0.
POINT        202        2319.712      0.      0.
POINT        203              0.829.2961      0.
POINT        204        2319.712829.2961      0.
POINT        205        78.069293064.908      0.
POINT        206        2305.5953064.908      0.
POINT        207        620.47548442.133      0.
POINT        208        1574.3928442.133      0.
$NODES
GRID           1        1174.068      0.      0.
GRID           2        1171.607 414.648      0.
GRID           3        1167.988829.2961      0.
GRID           4        1166.6311187.237      0.
GRID           5        1166.0771545.179      0.
GRID           6        1166.746 1903.12      0.
GRID           7        1208.0912261.062      0.
GRID           8        1259.9962619.003      0.
GRID           9        1168.2093064.908      0.
GRID          10        1164.2973409.771      0.
GRID          11         1160.283754.634      0.
GRID          12        1156.4714099.496      0.
GRID          13        1152.9364444.359      0.
GRID          14        1131.6774789.222      0.
GRID          15        1110.3525112.049      0.
GRID          16        1093.6595434.876      0.
GRID          17        1079.1135757.704      0.
GRID          18        1064.4746080.531      0.
GRID          19        1050.4966403.358      0.
GRID          20        1036.685 6748.43      0.
$ ... 55 like lines cut
$ELEMENTS
CBEAM          1       1       1       2      0.      0.      1.
CBEAM          2       2       2       3      0.      0.      1.
CBEAM          3       3       3       4      0.      0.      1.
CBEAM          4       4       4       5      0.      0.      1.
CBEAM          5       5       5       6      0.      0.      1.
CBEAM          6       6       6       7      0.      0.      1.
CBEAM          7       7       7       8      0.      0.      1.
CBEAM          8       8       8       9      0.      0.      1.
CBEAM          9       9       9      10      0.      0.      1.
CBEAM         10      10      10      11      0.      0.      1.
CBEAM         11      11      11      12      0.      0.      1.
CBEAM         12      12      12      13      0.      0.      1.
CBEAM         13      13      13      14      0.      0.      1.
CBEAM         14      14      14      15      0.      0.      1.
CBEAM         15      15      15      16      0.      0.      1.
CBEAM         16      16      16      17      0.      0.      1.
CBEAM         17      17      17      18      0.      0.      1.
CBEAM         18      18      18      19      0.      0.      1.
CBEAM         19      19      19      20      0.      0.      1.
CBEAM         20      20      20      21      0.      0.      1.
$ ... 4 like lines cut
$PROPERTIES
PBEAM          1       111099.552.9249+89.8076+8        5.5443+8
PBEAM          2       19749.0912.5721+88.6578+8        4.9397+8
PBEAM          3       1 8607.98 2.269+87.6665+8        4.3895+8
PBEAM          4       17733.4262.0391+86.8675+8         3.919+8
PBEAM          5       16919.426 1.825+86.1009+8        3.4432+8
PBEAM          6       16197.354 1.631+85.4276+8        3.0401+8
PBEAM          7       15712.3241.4957+84.9598+8        2.7443+8
PBEAM          8       15083.9351.3037+84.5205+8         2.552+8
PBEAM          9       14377.3131.0464+83.9037+8        2.2667+8
PBEAM         10       13898.3888.3484+73.2547+8        1.8491+8
PBEAM         11       13438.4046.5561+72.6821+8        1.4855+8
PBEAM         12       12999.5945.0568+72.1813+8        1.1721+8
PBEAM         13       12577.1323.8094+71.7555+8        9.1142+7
PBEAM         14       12209.2462.8418+71.4209+8        7.0732+7
PBEAM         15       11938.057 2.182+71.1729+8        5.5967+7
PBEAM         16       11738.7041.7353+79.8175+7         4.554+7
PBEAM         17       11565.8381.3837+78.2116+7        3.7132+7
PBEAM         18       11408.7781.0897+76.8348+7        2.9891+7
PBEAM         19       11273.0158474305.5.6593+7        2.3734+7
PBEAM         20       11174.9756630479.4.7109+7        1.8872+7
$ ... 4 like lines cut
$MATERIALS
MAT1           1  72397.  27000.     .32   1.-16
$MASSES
CONM1      10001       1         .014255         .014255
         .014255                                                .8537787
                2584.143
CONM1      10002       2        .0255424        .0255424
        .0255424                                                 1.52341
                5099.846
CONM1      10003       3        .0432255        .0432255
        .0432255                                                2.404478
                 4736.09
CONM1      10004       4        .0540428        .0540428
        .0540428                                                2.647346
                4277.861
CONM1      10005       5        .0529823        .0529823
        .0529823                                                 3.32168
                 4230.48
CONM1      10006       6        .0519926        .0519926
        .0519926                                                3.149719
                4097.984
CONM1      10007       7        .0511322        .0511322
        .0511322                                                .9464447
                3823.499
CONM1      10008       8        .5820945        .5820945
        .5820945                                                -534.108
                562095.2
CONM1      10009       9        .0540842        .0540842
        .0540842                                                3.628556
                4222.145
CONM1      10010      10        .0440065        .0440065
        .0440065                                                2.542652
                3247.848
CONM1      10011      11         .040543         .040543
         .040543                                                1.974232
                2847.955
CONM1      10012      12        .0372577        .0372577
        .0372577                                                1.476284
                2489.951
CONM1      10013      13        .0341472        .0341472
        .0341472                                                1.074495
                  2171.9
CONM1      10014      14        .0301714        .0301714
        .0301714                                                 1.14865
                1877.029
CONM1      10015      15        .0266564        .0266564
        .0266564                                                1.213195
                1638.282
CONM1      10016      16        .0244508        .0244508
        .0244508                                                1.435298
                1468.872
CONM1      10017      17        .0224009        .0224009
        .0224009                                                1.186922
                1273.602
CONM1      10018      18        .0204693        .0204693
        .0204693                                                1.291983
                 1127.76
CONM1      10019      19        .0189726        .0189726
        .0189726                                                1.150185
                1073.833
CONM1      10020      20        .0174297        .0174297
        .0174297                                                1.011766
                1085.518
$ ... 16 like lines cut
CONM2      10027      27           1.-19
CONM2      10028      28           1.-19
CONM2      10029      29           1.-19
CONM2      10030      30           1.-19
CONM2      10031      31           1.-19
CONM2      10032      32           1.-19
CONM2      10033      33           1.-19
CONM2      10034      34           1.-19
CONM2      10035      35           1.-19
CONM2      10036      36           1.-19
CONM2      10037      37           1.-19
CONM2      10038      38           1.-19
CONM2      10039      39           1.-19
CONM2      10040      40           1.-19
CONM2      10041      41           1.-19
CONM2      10042      42           1.-19
CONM2      10043      43           1.-19
CONM2      10044      44           1.-19
CONM2      10045      45           1.-19
CONM2      10046      46           1.-19
$ ... 29 like lines cut
$RIGID ELEMENTS
RBE2         151       1  123456      26
RBE2         152       2  123456      28
RBE2         153       3  123456      30
RBE2         154       4  123456      32
RBE2         155       5  123456      34
RBE2         156       6  123456      36
RBE2         157       7  123456      38
RBE2         158       8  123456      40
RBE2         159       9  123456      42
RBE2         160      10  123456      44
RBE2         161      11  123456      46
RBE2         162      12  123456      48
RBE2         163      13  123456      50
RBE2         164      14  123456      52
RBE2         165      15  123456      54
RBE2         166      16  123456      56
RBE2         167      17  123456      58
RBE2         168      18  123456      60
RBE2         169      19  123456      62
RBE2         170      20  123456      64
$ ... 30 like lines cut
$AERO
CAERO4    103001  103000                      70
              0.      0.      0.2319.712      0.829.2961      0.2319.712
CAERO4    104001  104000                      71
              0.829.2961      0.2319.71278.069293064.908      0.2227.526
CAERO4    105001  105000                      72
        78.069293064.908      0.2227.526620.47548442.133      0. 953.917
PAERO4    103000       0       0       0       0      0.      0.      0.
              0.      0.      0.      0.      0.      0.      0.      0.
              0.      0.      0.      0.
PAERO4    104000       0       0       0       0      0.      0.      0.
              0.      0.      0.      0.      0.      0.      0.      0.
              0.      0.      0.      0.      0.      0.      0.      0.
              0.      0.      0.      0.      0.      0.      0.      0.
              0.      0.      0.      0.      0.      0.      0.      0.
              0.      0.      0.      0.      0.      0.      0.
PAERO4    105000       0       0       0       0      0.      0.      0.
              0.      0.      0.      0.      0.      0.      0.      0.
              0.      0.      0.      0.      0.      0.      0.      0.
              0.      0.      0.      0.      0.      0.      0.      0.
              0.      0.      0.      0.      0.      0.      0.      0.
              0.      0.      0.      0.      0.      0.      0.      0.
              0.      0.      0.      0.      0.      0.      0.      0.
              0.      0.      0.      0.      0.      0.      0.      0.
              0.      0.      0.      0.      0.      0.      0.      0.
              0.      0.      0.      0.      0.      0.      0.      0.
              0.      0.      0.      0.      0.      0.      0.      0.
              0.      0.      0.      0.      0.      0.      0.      0.
              0.      0.      0.      0.      0.      0.      0.      0.
              0.      0.      0.      0.      0.      0.      0.      0.
              0.      0.      0.      0.      0.      0.      0.      0.
              0.      0.      0.      0.      0.      0.      0.      0.
              0.      0.      0.      0.      0.      0.      0.      0.
              0.      0.      0.      0.      0.      0.      0.      0.
              0.      0.      0.      0.      0.      0.      0.      0.
              0.      0.      0.      0.      0.      0.      0.      0.
              0.      0.      0.      0.      0.      0.      0.      0.
$ ... 5 like lines cut
SPLINE2        1  103001  103001  103005       1              1.       0
              0.      0.
SPLINE2        2  104001  104001  104014       1              1.       0
              0.      0.
SPLINE2        3  105001  105001  105067       1              1.       0
              0.      0.
$DYNAMIC
EIGRL         10                      10
$AERO CONTROL SURFACES
AEFACT        70      0.      .2      .4      .6      .8      1.
AEFACT        71      0..0714286.1428571.2142857.2857143.3571429.4285714
              .5.5714286.6428571.7142857.7857143.8571429.9285714      1.
AEFACT        72      0..0149254.0298507.0447761.0597015.0746269.0895522
        .1044776 .119403.1343284.1492537.1641791.1791045.1940299.2089552
        .2238806 .238806.2537313.2686567.2835821.2985075.3134328.3283582
        .3432836 .358209.3731343.3880597.4029851.4179104.4328358.4477612
        .4626866.4776119.4925373.5074627.5223881.5373134.5522388.5671642
        .5820896.5970149.6119403.6268657 .641791.6567164.6716418.6865672
        .7014925.7164179.7313433.7462687 .761194.7761194.7910448.8059701
        .8208955.8358209.8507463.8656716 .880597.8955224.9104478.9253731
        .9402985.9552239.9701493.9850746      1.
$STATIC AERO
AEROS          0       0   1984.  17174.1.6135+7
$FLUTTER
AERO           0      1.   1984.1.225-12
FLUTTER        1      PK       1       2       3       L
FLFACT         1.6669388
FLFACT         2      0.
FLFACT         3 -52000.-61857.9-71715.8-81573.7-91431.6-101289.-111147.
        -121005.-130863.-140721.-150579.-160437.-170295.-180153.-190011.
        -199868.-209726.-219584.-229442.-239300.
MKAERO2       0..3518427
MKAERO2       0. 4.60929
MKAERO2       0.8.866737
MKAERO2       0.13.12418
MKAERO2       0.17.38163
MKAERO2       0.21.63908
MKAERO2       0.25.89652
MKAERO2       0.30.15397
MKAERO2       0.34.41142
MKAERO2       0.38.66886
MKAERO2       0.42.92631
MKAERO2       0.47.18375
MKAERO2       0. 51.4412
MKAERO2       0.55.69865
MKAERO2       0. 59.9561
MKAERO2       .1.3518427
MKAERO2       .1 4.60929
MKAERO2       .18.866737
MKAERO2       .113.12418
MKAERO2       .117.38163
$ ... 85 like lines cut
$SPCs
SPC1          50  123456       1       2       3
$SETS
SET1           1       1       2       3       4       5       6       7
               8       9      10      11      12      13      14      15
              16      17      18      19      20      21      22      23
              24      25
ENDDATA
